8030
  -OEChem-09112503433D

  9  9  0     0  0  0  0  0  0999 V2000
    1.4640   -0.0011    0.0000 S   0  0  0  0  0  0  0  0  0  0  0  0
   -1.0037    0.7132    0.0000 C   0  0  0  0  0  0  0  0  0  0  0  0
   -1.0050   -0.7116    0.0001 C   0  0  0  0  0  0  0  0  0  0  0  0
    0.2733    1.2295    0.0000 C   0  0  0  0  0  0  0  0  0  0  0  0
    0.2713   -1.2300   -0.0001 C   0  0  0  0  0  0  0  0  0  0  0  0
   -1.8943    1.3282    0.0000 H   0  0  0  0  0  0  0  0  0  0  0  0
   -1.8965   -1.3252    0.0001 H   0  0  0  0  0  0  0  0  0  0  0  0
    0.5641    2.2705    0.0000 H   0  0  0  0  0  0  0  0  0  0  0  0
    0.5605   -2.2715   -0.0002 H   0  0  0  0  0  0  0  0  0  0  0  0
  1  4  1  0  0  0  0
  1  5  1  0  0  0  0
  2  3  1  0  0  0  0
  2  4  2  0  0  0  0
  2  6  1  0  0  0  0
  3  5  2  0  0  0  0
  3  7  1  0  0  0  0
  4  8  1  0  0  0  0
  5  9  1  0  0  0  0
M  END

$$$$
